units metal
atom_style atomic

if "data == data" then "read_data random.data"
read_data random.data
Reading data file ...
  orthogonal box = (0 0 0) to (17.235478 17.235478 17.235478)
  reading atoms ...
  512 atoms
if "data == data" then "reset_timestep 0"
reset_timestep 0
if "data == continuation" then "read_restart lammps_runs/run_nvt_test/restart_nvt_C.*"

mass 1 12.011  # mass of carbon
pair_style quip
pair_coeff * * potentials/carbon.xml "" 6

neighbor 2.0 bin
neigh_modify every 1 delay 0 check yes

variable nAtoms equal atoms
group carbon type 1
512 atoms in group carbon
timestep 0.001
fix removeMomentum all momentum 1 linear 1 1 1

compute T all temp
fix TempAve all ave/time 100 1 100 c_T

variable P equal press
fix PressAve all ave/time 100 1 100 v_P
variable v equal vol
fix vAve all ave/time 100 1 100 v_v
compute PE all pe pair
variable PE_Atom equal c_PE/v_nAtoms
fix PEAve_Atom all ave/time 100 1 100 v_PE_Atom

compute MSD all msd

thermo_style custom step cpu temp f_TempAve press f_PressAve f_PEAve_Atom vol f_vAve c_MSD[4]
thermo_modify flush yes
thermo 100
dump traj       all atom 100 lammps_runs/run_nvt_test/NVT/dump_nvt_C.*.cfg
restart 100 lammps_runs/run_nvt_test/restart_nvt_C.*

variable Nrun1 equal 1000
variable Nrun2 equal (1000+1000)
if "1000 > 0 && $(step) == 0" then "velocity all create 9000 2023"
velocity all create 9000 2023

run 0
  update every 1 steps, delay 0 steps, check yes
Step          CPU            Temp        f_TempAve        Press        f_PressAve    f_PEAve_Atom      Volume         f_vAve        c_MSD[4]
0   0              9000           9000           45037.514      45037.514     -154.74294      5120           5120           0
Loop time of 9.3233e-06 on 40 procs for 0 steps with 512 atoms

fix integrate all nvt temp 9000 9000 0.1
run 1000 upto
Step          CPU            Temp        f_TempAve        Press        f_PressAve    f_PEAve_Atom      Volume         f_vAve        c_MSD[4]
0   0              9000           9000           45037.514      45037.514     -154.74294      5120           5120           0
Averages over the last 6 of 11 rows, steps 500 to 1000:
Temp f_TempAve Press f_PressAve f_PEAve_Atom Volume f_vAve c_MSD[4]
8967.42 8967.42 84237.5 84237.5 -155.729 5120 5120 63.7965
Loop time of 437.023 on 40 procs for 1000 steps with 512 atoms

unfix integrate

fix integrate all nvt temp 9000 300 0.1
run 2000 upto start 1000 stop 2000
Step          CPU            Temp        f_TempAve        Press        f_PressAve    f_PEAve_Atom      Volume         f_vAve        c_MSD[4]
1000   0              9153.3629      9153.3629      70292.961      70292.961     -155.82339      5120           5120           83.723069
Averages over the last 6 of 11 rows, steps 1500 to 2000:
Temp f_TempAve Press f_PressAve f_PEAve_Atom Volume f_vAve c_MSD[4]
4410.65 4410.65 24698.5 24698.5 -156.511 5120 5120 113.776
Loop time of 441.032 on 40 procs for 1000 steps with 512 atoms

unfix integrate

write_data lammps_runs/run_nvt_test/out_data_quench_C
System init for write_data ...
